Circuit: * C:\Users\filberol\Documents\labs_fs\lab1_fs\nor_test.asc

Direct Newton iteration for .op point succeeded.

Date: Sat Mar 30 15:15:33 2024
Total elapsed time: 0.362 seconds.

tnom = 27
temp = 27
method = modified trap
totiter = 20252
traniter = 20243
tranpoints = 10099
accept = 10078
rejected = 21
matrix size = 24
fillins = 0
solver = Normal
Matrix Compiler1: 2.20 KB object code size  0.5/0.2/[0.2]
Matrix Compiler2: 2.61 KB object code size  0.2/0.2/[0.2]

